<?xml version="1.0" encoding="utf-8"?>
<!DOCTYPE population SYSTEM "http://www.matsim.org/files/dtd/population_v6.dtd">

<population>



<!-- ====================================================================== -->

	<person id="0">
		<plan selected="yes">
			<activity type="activity" link="113901" end_time="02:20:35" >
			</activity>
			<leg mode="av" dep_time="02:20:35">
			</leg>
			<activity type="activity" link="309808" start_time="02:36:49" >
			</activity>
		</plan>

	</person>

<!-- ====================================================================== -->

	<person id="1">
		<plan selected="yes">
			<activity type="activity" link="23348" end_time="02:53:59" >
			</activity>
			<leg mode="av" dep_time="02:53:59">
			</leg>
			<activity type="activity" link="388673" start_time="03:04:47" >
			</activity>
		</plan>

	</person>

<!-- ====================================================================== -->

	<person id="10">
		<plan selected="yes">
			<activity type="activity" link="165965" end_time="17:44:40" >
			</activity>
			<leg mode="av" dep_time="17:44:40">
			</leg>
			<activity type="activity" link="221928" start_time="17:56:57" >
			</activity>
		</plan>

	</person>

<!-- ====================================================================== -->

	<person id="100">
		<plan selected="yes">
			<activity type="activity" link="4509" end_time="23:48:06" >
			</activity>
			<leg mode="av" dep_time="23:48:06">
			</leg>
			<activity type="activity" link="89555" start_time="24:06:37" >
			</activity>
		</plan>

	</person>

<!-- ====================================================================== -->

	<person id="10003">
		<plan selected="yes">
			<activity type="activity" link="327584" end_time="13:40:34" >
			</activity>
			<leg mode="av" dep_time="13:40:34">
			</leg>
			<activity type="activity" link="249977" start_time="13:46:29" >
			</activity>
		</plan>

	</person>

<!-- ====================================================================== -->

	<person id="10005">
		<plan selected="yes">
			<activity type="activity" link="224135" end_time="15:04:21" >
			</activity>
			<leg mode="av" dep_time="15:04:21">
			</leg>
			<activity type="activity" link="326434" start_time="15:12:06" >
			</activity>
		</plan>

	</person>

<!-- ====================================================================== -->

	<person id="10007">
		<plan selected="yes">
			<activity type="activity" link="70587" end_time="16:01:19" >
			</activity>
			<leg mode="av" dep_time="16:01:19">
			</leg>
			<activity type="activity" link="307108" start_time="16:06:16" >
			</activity>
		</plan>

	</person>

<!-- ====================================================================== -->

	<person id="10008">
		<plan selected="yes">
			<activity type="activity" link="317720" end_time="16:15:54" >
			</activity>
			<leg mode="av" dep_time="16:15:54">
			</leg>
			<activity type="activity" link="348649" start_time="16:29:12" >
			</activity>
		</plan>

	</person>

<!-- ====================================================================== -->

	<person id="10009">
		<plan selected="yes">
			<activity type="activity" link="348649" end_time="16:29:36" >
			</activity>
			<leg mode="av" dep_time="16:29:36">
			</leg>
			<activity type="activity" link="408785" start_time="16:38:29" >
			</activity>
		</plan>

	</person>

<!-- ====================================================================== -->

	<person id="1001">
		<plan selected="yes">
			<activity type="activity" link="139015" end_time="15:22:25" >
			</activity>
			<leg mode="av" dep_time="15:22:25">
			</leg>
			<activity type="activity" link="141974" start_time="15:25:56" >
			</activity>
		</plan>

	</person>

<!-- ====================================================================== -->

	<person id="10010">
		<plan selected="yes">
			<activity type="activity" link="443826" end_time="16:45:04" >
			</activity>
			<leg mode="av" dep_time="16:45:04">
			</leg>
			<activity type="activity" link="127152" start_time="16:59:20" >
			</activity>
		</plan>

	</person>

<!-- ====================================================================== -->

	<person id="10011">
		<plan selected="yes">
			<activity type="activity" link="317720" end_time="17:14:02" >
			</activity>
			<leg mode="av" dep_time="17:14:02">
			</leg>
			<activity type="activity" link="54748" start_time="17:28:58" >
			</activity>
		</plan>

	</person>

<!-- ====================================================================== -->

	<person id="10013">
		<plan selected="yes">
			<activity type="activity" link="408855" end_time="18:52:06" >
			</activity>
			<leg mode="av" dep_time="18:52:06">
			</leg>
			<activity type="activity" link="29814" start_time="18:55:03" >
			</activity>
		</plan>

	</person>

<!-- ====================================================================== -->

	<person id="10014">
		<plan selected="yes">
			<activity type="activity" link="29814" end_time="18:55:19" >
			</activity>
			<leg mode="av" dep_time="18:55:19">
			</leg>
			<activity type="activity" link="276752" start_time="19:05:42" >
			</activity>
		</plan>

	</person>

<!-- ====================================================================== -->

	<person id="10015">
		<plan selected="yes">
			<activity type="activity" link="443824" end_time="19:21:10" >
			</activity>
			<leg mode="av" dep_time="19:21:10">
			</leg>
			<activity type="activity" link="89661" start_time="19:26:18" >
			</activity>
		</plan>

	</person>

<!-- ====================================================================== -->

	<person id="10016">
		<plan selected="yes">
			<activity type="activity" link="443824" end_time="19:31:19" >
			</activity>
			<leg mode="av" dep_time="19:31:19">
			</leg>
			<activity type="activity" link="36368" start_time="19:40:41" >
			</activity>
		</plan>

	</person>

<!-- ====================================================================== -->

	<person id="10017">
		<plan selected="yes">
			<activity type="activity" link="443818" end_time="19:59:03" >
			</activity>
			<leg mode="av" dep_time="19:59:03">
			</leg>
			<activity type="activity" link="264639" start_time="20:15:54" >
			</activity>
		</plan>

	</person>

<!-- ====================================================================== -->

	<person id="10018">
		<plan selected="yes">
			<activity type="activity" link="322771" end_time="20:17:37" >
			</activity>
			<leg mode="av" dep_time="20:17:37">
			</leg>
			<activity type="activity" link="61668" start_time="20:21:33" >
			</activity>
		</plan>

	</person>

<!-- ====================================================================== -->

	<person id="10019">
		<plan selected="yes">
			<activity type="activity" link="158083" end_time="20:28:28" >
			</activity>
			<leg mode="av" dep_time="20:28:28">
			</leg>
			<activity type="activity" link="176275" start_time="20:42:00" >
			</activity>
		</plan>

	</person>

<!-- ====================================================================== -->

	<person id="1002">
		<plan selected="yes">
			<activity type="activity" link="305748" end_time="15:42:10" >
			</activity>
			<leg mode="av" dep_time="15:42:10">
			</leg>
			<activity type="activity" link="17022" start_time="15:56:54" >
			</activity>
		</plan>

	</person>

<!-- ====================================================================== -->

	<person id="10020">
		<plan selected="yes">
			<activity type="activity" link="64363" end_time="21:08:01" >
			</activity>
			<leg mode="av" dep_time="21:08:01">
			</leg>
			<activity type="activity" link="49201" start_time="21:23:18" >
			</activity>
		</plan>

	</person>

<!-- ====================================================================== -->

	<person id="10021">
		<plan selected="yes">
			<activity type="activity" link="197291" end_time="21:34:44" >
			</activity>
			<leg mode="av" dep_time="21:34:44">
			</leg>
			<activity type="activity" link="146539" start_time="21:40:40" >
			</activity>
		</plan>

	</person>

<!-- ====================================================================== -->

	<person id="10024">
		<plan selected="yes">
			<activity type="activity" link="21907" end_time="21:59:11" >
			</activity>
			<leg mode="av" dep_time="21:59:11">
			</leg>
			<activity type="activity" link="314840" start_time="22:10:35" >
			</activity>
		</plan>

	</person>

<!-- ====================================================================== -->

	<person id="10025">
		<plan selected="yes">
			<activity type="activity" link="443822" end_time="22:22:41" >
			</activity>
			<leg mode="av" dep_time="22:22:41">
			</leg>
			<activity type="activity" link="29819" start_time="22:37:54" >
			</activity>
		</plan>

	</person>

<!-- ====================================================================== -->

	<person id="10026">
		<plan selected="yes">
			<activity type="activity" link="442731" end_time="23:08:14" >
			</activity>
			<leg mode="av" dep_time="23:08:14">
			</leg>
			<activity type="activity" link="122807" start_time="23:14:51" >
			</activity>
		</plan>

	</person>

<!-- ====================================================================== -->

	<person id="10028">
		<plan selected="yes">
			<activity type="activity" link="367676" end_time="06:46:35" >
			</activity>
			<leg mode="av" dep_time="06:46:35">
			</leg>
			<activity type="activity" link="171574" start_time="06:58:59" >
			</activity>
		</plan>

	</person>

<!-- ====================================================================== -->

	<person id="1003">
		<plan selected="yes">
			<activity type="activity" link="390059" end_time="15:59:20" >
			</activity>
			<leg mode="av" dep_time="15:59:20">
			</leg>
			<activity type="activity" link="369073" start_time="16:09:00" >
			</activity>
		</plan>

	</person>

<!-- ====================================================================== -->

	<person id="10030">
		<plan selected="yes">
			<activity type="activity" link="134837" end_time="07:20:18" >
			</activity>
			<leg mode="av" dep_time="07:20:18">
			</leg>
			<activity type="activity" link="217794" start_time="07:30:33" >
			</activity>
		</plan>

	</person>

<!-- ====================================================================== -->

	<person id="10031">
		<plan selected="yes">
			<activity type="activity" link="319469" end_time="07:42:48" >
			</activity>
			<leg mode="av" dep_time="07:42:48">
			</leg>
			<activity type="activity" link="363134" start_time="08:00:19" >
			</activity>
		</plan>

	</person>

<!-- ====================================================================== -->

	<person id="10032">
		<plan selected="yes">
			<activity type="activity" link="210964" end_time="08:08:23" >
			</activity>
			<leg mode="av" dep_time="08:08:23">
			</leg>
			<activity type="activity" link="5762" start_time="08:15:36" >
			</activity>
		</plan>

	</person>

<!-- ====================================================================== -->

	<person id="10034">
		<plan selected="yes">
			<activity type="activity" link="257822" end_time="08:59:05" >
			</activity>
			<leg mode="av" dep_time="08:59:05">
			</leg>
			<activity type="activity" link="250391" start_time="09:13:30" >
			</activity>
		</plan>

	</person>

<!-- ====================================================================== -->

	<person id="10037">
		<plan selected="yes">
			<activity type="activity" link="117291" end_time="10:21:06" >
			</activity>
			<leg mode="av" dep_time="10:21:06">
			</leg>
			<activity type="activity" link="22156" start_time="10:34:23" >
			</activity>
		</plan>

	</person>

<!-- ====================================================================== -->

	<person id="10038">
		<plan selected="yes">
			<activity type="activity" link="279323" end_time="10:36:30" >
			</activity>
			<leg mode="av" dep_time="10:36:30">
			</leg>
			<activity type="activity" link="54848" start_time="10:46:55" >
			</activity>
		</plan>

	</person>

<!-- ====================================================================== -->

	<person id="10039">
		<plan selected="yes">
			<activity type="activity" link="113057" end_time="11:55:17" >
			</activity>
			<leg mode="av" dep_time="11:55:17">
			</leg>
			<activity type="activity" link="71801" start_time="12:00:57" >
			</activity>
		</plan>

	</person>

<!-- ====================================================================== -->

	<person id="1004">
		<plan selected="yes">
			<activity type="activity" link="17787" end_time="16:17:24" >
			</activity>
			<leg mode="av" dep_time="16:17:24">
			</leg>
			<activity type="activity" link="366844" start_time="16:23:35" >
			</activity>
		</plan>

	</person>

<!-- ====================================================================== -->

	<person id="10040">
		<plan selected="yes">
			<activity type="activity" link="281157" end_time="12:27:01" >
			</activity>
			<leg mode="av" dep_time="12:27:01">
			</leg>
			<activity type="activity" link="215871" start_time="12:42:20" >
			</activity>
		</plan>

	</person>

<!-- ====================================================================== -->

	<person id="10041">
		<plan selected="yes">
			<activity type="activity" link="215871" end_time="12:42:26" >
			</activity>
			<leg mode="av" dep_time="12:42:26">
			</leg>
			<activity type="activity" link="398933" start_time="12:48:16" >
			</activity>
		</plan>

	</person>

<!-- ====================================================================== -->

	<person id="10042">
		<plan selected="yes">
			<activity type="activity" link="363127" end_time="12:56:00" >
			</activity>
			<leg mode="av" dep_time="12:56:00">
			</leg>
			<activity type="activity" link="224676" start_time="13:07:02" >
			</activity>
		</plan>

	</person>

<!-- ====================================================================== -->

	<person id="10043">
		<plan selected="yes">
			<activity type="activity" link="317006" end_time="13:44:33" >
			</activity>
			<leg mode="av" dep_time="13:44:33">
			</leg>
			<activity type="activity" link="223805" start_time="14:02:01" >
			</activity>
		</plan>

	</person>

<!-- ====================================================================== -->

	<person id="10047">
		<plan selected="yes">
			<activity type="activity" link="302601" end_time="19:08:06" >
			</activity>
			<leg mode="av" dep_time="19:08:06">
			</leg>
			<activity type="activity" link="250489" start_time="19:15:04" >
			</activity>
		</plan>

	</person>

<!-- ====================================================================== -->

	<person id="10048">
		<plan selected="yes">
			<activity type="activity" link="256655" end_time="19:16:29" >
			</activity>
			<leg mode="av" dep_time="19:16:29">
			</leg>
			<activity type="activity" link="412131" start_time="19:23:38" >
			</activity>
		</plan>

	</person>

<!-- ====================================================================== -->

	<person id="10049">
		<plan selected="yes">
			<activity type="activity" link="74850" end_time="19:27:56" >
			</activity>
			<leg mode="av" dep_time="19:27:56">
			</leg>
			<activity type="activity" link="249773" start_time="19:34:01" >
			</activity>
		</plan>

	</person>

<!-- ====================================================================== -->

	<person id="1005">
		<plan selected="yes">
			<activity type="activity" link="299505" end_time="16:26:38" >
			</activity>
			<leg mode="av" dep_time="16:26:38">
			</leg>
			<activity type="activity" link="392000" start_time="16:47:11" >
			</activity>
		</plan>

	</person>

<!-- ====================================================================== -->

	<person id="10050">
		<plan selected="yes">
			<activity type="activity" link="165983" end_time="19:53:58" >
			</activity>
			<leg mode="av" dep_time="19:53:58">
			</leg>
			<activity type="activity" link="157695" start_time="19:59:47" >
			</activity>
		</plan>

	</person>

<!-- ====================================================================== -->

	<person id="10051">
		<plan selected="yes">
			<activity type="activity" link="165965" end_time="20:00:00" >
			</activity>
			<leg mode="av" dep_time="20:00:00">
			</leg>
			<activity type="activity" link="112963" start_time="20:05:56" >
			</activity>
		</plan>

	</person>

<!-- ====================================================================== -->

	<person id="10053">
		<plan selected="yes">
			<activity type="activity" link="42171" end_time="21:28:19" >
			</activity>
			<leg mode="av" dep_time="21:28:19">
			</leg>
			<activity type="activity" link="134835" start_time="21:34:18" >
			</activity>
		</plan>

	</person>

<!-- ====================================================================== -->

	<person id="10054">
		<plan selected="yes">
			<activity type="activity" link="158775" end_time="21:39:15" >
			</activity>
			<leg mode="av" dep_time="21:39:15">
			</leg>
			<activity type="activity" link="31921" start_time="21:48:24" >
			</activity>
		</plan>

	</person>

<!-- ====================================================================== -->

	<person id="10055">
		<plan selected="yes">
			<activity type="activity" link="446490" end_time="21:51:49" >
			</activity>
			<leg mode="av" dep_time="21:51:49">
			</leg>
			<activity type="activity" link="372652" start_time="21:59:14" >
			</activity>
		</plan>

	</person>

<!-- ====================================================================== -->

	<person id="10057">
		<plan selected="yes">
			<activity type="activity" link="155590" end_time="22:20:29" >
			</activity>
			<leg mode="av" dep_time="22:20:29">
			</leg>
			<activity type="activity" link="200262" start_time="22:33:56" >
			</activity>
		</plan>

	</person>

<!-- ====================================================================== -->

	<person id="1006">
		<plan selected="yes">
			<activity type="activity" link="298846" end_time="16:51:25" >
			</activity>
			<leg mode="av" dep_time="16:51:25">
			</leg>
			<activity type="activity" link="363432" start_time="17:04:43" >
			</activity>
		</plan>

	</person>

<!-- ====================================================================== -->

	<person id="10061">
		<plan selected="yes">
			<activity type="activity" link="243908" end_time="23:50:32" >
			</activity>
			<leg mode="av" dep_time="23:50:32">
			</leg>
			<activity type="activity" link="122811" start_time="24:06:34" >
			</activity>
		</plan>

	</person>

<!-- ====================================================================== -->

	<person id="10062">
		<plan selected="yes">
			<activity type="activity" link="322755" end_time="00:43:59" >
			</activity>
			<leg mode="av" dep_time="00:43:59">
			</leg>
			<activity type="activity" link="216529" start_time="00:50:23" >
			</activity>
		</plan>

	</person>

<!-- ====================================================================== -->

	<person id="10063">
		<plan selected="yes">
			<activity type="activity" link="51438" end_time="01:00:04" >
			</activity>
			<leg mode="av" dep_time="01:00:04">
			</leg>
			<activity type="activity" link="194525" start_time="01:05:34" >
			</activity>
		</plan>

	</person>

<!-- ====================================================================== -->

	<person id="1007">
		<plan selected="yes">
			<activity type="activity" link="363432" end_time="17:05:16" >
			</activity>
			<leg mode="av" dep_time="17:05:16">
			</leg>
			<activity type="activity" link="166796" start_time="17:12:52" >
			</activity>
		</plan>

	</person>

<!-- ====================================================================== -->

	<person id="10075">
		<plan selected="yes">
			<activity type="activity" link="334990" end_time="08:39:41" >
			</activity>
			<leg mode="av" dep_time="08:39:41">
			</leg>
			<activity type="activity" link="118833" start_time="08:51:37" >
			</activity>
		</plan>

	</person>

<!-- ====================================================================== -->

	<person id="10079">
		<plan selected="yes">
			<activity type="activity" link="372651" end_time="13:37:48" >
			</activity>
			<leg mode="av" dep_time="13:37:48">
			</leg>
			<activity type="activity" link="379948" start_time="13:46:55" >
			</activity>
		</plan>

	</person>

<!-- ====================================================================== -->

	<person id="1008">
		<plan selected="yes">
			<activity type="activity" link="281855" end_time="17:16:54" >
			</activity>
			<leg mode="av" dep_time="17:16:54">
			</leg>
			<activity type="activity" link="446517" start_time="17:22:39" >
			</activity>
		</plan>

	</person>

<!-- ====================================================================== -->

	<person id="10080">
		<plan selected="yes">
			<activity type="activity" link="47475" end_time="13:50:04" >
			</activity>
			<leg mode="av" dep_time="13:50:04">
			</leg>
			<activity type="activity" link="310389" start_time="14:05:39" >
			</activity>
		</plan>

	</person>

<!-- ====================================================================== -->

	<person id="10081">
		<plan selected="yes">
			<activity type="activity" link="51437" end_time="14:12:38" >
			</activity>
			<leg mode="av" dep_time="14:12:38">
			</leg>
			<activity type="activity" link="398897" start_time="14:17:17" >
			</activity>
		</plan>

	</person>

<!-- ====================================================================== -->

	<person id="10082">
		<plan selected="yes">
			<activity type="activity" link="164" end_time="14:38:44" >
			</activity>
			<leg mode="av" dep_time="14:38:44">
			</leg>
			<activity type="activity" link="16239" start_time="14:53:22" >
			</activity>
		</plan>

	</person>

<!-- ====================================================================== -->

	<person id="10083">
		<plan selected="yes">
			<activity type="activity" link="134831" end_time="14:54:39" >
			</activity>
			<leg mode="av" dep_time="14:54:39">
			</leg>
			<activity type="activity" link="307820" start_time="15:02:36" >
			</activity>
		</plan>

	</person>

<!-- ====================================================================== -->

	<person id="10084">
		<plan selected="yes">
			<activity type="activity" link="438300" end_time="15:21:15" >
			</activity>
			<leg mode="av" dep_time="15:21:15">
			</leg>
			<activity type="activity" link="52448" start_time="15:54:07" >
			</activity>
		</plan>

	</person>

<!-- ====================================================================== -->

	<person id="10085">
		<plan selected="yes">
			<activity type="activity" link="48225" end_time="16:07:41" >
			</activity>
			<leg mode="av" dep_time="16:07:41">
			</leg>
			<activity type="activity" link="88311" start_time="16:20:09" >
			</activity>
		</plan>

	</person>

<!-- ====================================================================== -->

	<person id="10086">
		<plan selected="yes">
			<activity type="activity" link="150951" end_time="17:30:50" >
			</activity>
			<leg mode="av" dep_time="17:30:50">
			</leg>
			<activity type="activity" link="155463" start_time="17:44:22" >
			</activity>
		</plan>

	</person>

<!-- ====================================================================== -->

	<person id="1009">
		<plan selected="yes">
			<activity type="activity" link="142693" end_time="17:29:59" >
			</activity>
			<leg mode="av" dep_time="17:29:59">
			</leg>
			<activity type="activity" link="388673" start_time="17:38:55" >
			</activity>
		</plan>

	</person>

<!-- ====================================================================== -->

	<person id="10093">
		<plan selected="yes">
			<activity type="activity" link="348680" end_time="20:47:27" >
			</activity>
			<leg mode="av" dep_time="20:47:27">
			</leg>
			<activity type="activity" link="250489" start_time="20:57:05" >
			</activity>
		</plan>

	</person>

<!-- ====================================================================== -->

	<person id="10094">
		<plan selected="yes">
			<activity type="activity" link="113082" end_time="21:06:50" >
			</activity>
			<leg mode="av" dep_time="21:06:50">
			</leg>
			<activity type="activity" link="327557" start_time="21:11:17" >
			</activity>
		</plan>

	</person>

<!-- ====================================================================== -->

	<person id="10096">
		<plan selected="yes">
			<activity type="activity" link="276782" end_time="21:31:55" >
			</activity>
			<leg mode="av" dep_time="21:31:55">
			</leg>
			<activity type="activity" link="348679" start_time="21:39:48" >
			</activity>
		</plan>

	</person>

<!-- ====================================================================== -->

	<person id="10097">
		<plan selected="yes">
			<activity type="activity" link="83184" end_time="21:46:45" >
			</activity>
			<leg mode="av" dep_time="21:46:45">
			</leg>
			<activity type="activity" link="377573" start_time="21:51:30" >
			</activity>
		</plan>

	</person>

<!-- ====================================================================== -->

	<person id="10098">
		<plan selected="yes">
			<activity type="activity" link="380005" end_time="22:11:15" >
			</activity>
			<leg mode="av" dep_time="22:11:15">
			</leg>
			<activity type="activity" link="363430" start_time="22:16:45" >
			</activity>
		</plan>

	</person>

<!-- ====================================================================== -->

	<person id="101">
		<plan selected="yes">
			<activity type="activity" link="429294" end_time="00:25:10" >
			</activity>
			<leg mode="av" dep_time="00:25:10">
			</leg>
			<activity type="activity" link="328529" start_time="00:49:02" >
			</activity>
		</plan>

	</person>

<!-- ====================================================================== -->

	<person id="1010">
		<plan selected="yes">
			<activity type="activity" link="63914" end_time="17:42:45" >
			</activity>
			<leg mode="av" dep_time="17:42:45">
			</leg>
			<activity type="activity" link="268623" start_time="17:57:56" >
			</activity>
		</plan>

	</person>

<!-- ====================================================================== -->

	<person id="10101">
		<plan selected="yes">
			<activity type="activity" link="31921" end_time="22:36:06" >
			</activity>
			<leg mode="av" dep_time="22:36:06">
			</leg>
			<activity type="activity" link="159004" start_time="22:43:53" >
			</activity>
		</plan>

	</person>

<!-- ====================================================================== -->

	<person id="10102">
		<plan selected="yes">
			<activity type="activity" link="107719" end_time="22:51:46" >
			</activity>
			<leg mode="av" dep_time="22:51:46">
			</leg>
			<activity type="activity" link="353187" start_time="22:59:25" >
			</activity>
		</plan>

	</person>

<!-- ====================================================================== -->

	<person id="10105">
		<plan selected="yes">
			<activity type="activity" link="201184" end_time="23:32:57" >
			</activity>
			<leg mode="av" dep_time="23:32:57">
			</leg>
			<activity type="activity" link="118712" start_time="23:39:33" >
			</activity>
		</plan>

	</person>

<!-- ====================================================================== -->

	<person id="10109">
		<plan selected="yes">
			<activity type="activity" link="171412" end_time="06:38:47" >
			</activity>
			<leg mode="av" dep_time="06:38:47">
			</leg>
			<activity type="activity" link="446382" start_time="06:48:27" >
			</activity>
		</plan>

	</person>

<!-- ====================================================================== -->

	<person id="1011">
		<plan selected="yes">
			<activity type="activity" link="299492" end_time="18:04:41" >
			</activity>
			<leg mode="av" dep_time="18:04:41">
			</leg>
			<activity type="activity" link="64220" start_time="18:13:15" >
			</activity>
		</plan>

	</person>

<!-- ====================================================================== -->

	<person id="10110">
		<plan selected="yes">
			<activity type="activity" link="450800" end_time="06:53:23" >
			</activity>
			<leg mode="av" dep_time="06:53:23">
			</leg>
			<activity type="activity" link="323111" start_time="06:58:58" >
			</activity>
		</plan>

	</person>

<!-- ====================================================================== -->

	<person id="10112">
		<plan selected="yes">
			<activity type="activity" link="300024" end_time="08:32:30" >
			</activity>
			<leg mode="av" dep_time="08:32:30">
			</leg>
			<activity type="activity" link="330804" start_time="08:48:04" >
			</activity>
		</plan>

	</person>

<!-- ====================================================================== -->

	<person id="10113">
		<plan selected="yes">
			<activity type="activity" link="13959" end_time="09:00:57" >
			</activity>
			<leg mode="av" dep_time="09:00:57">
			</leg>
			<activity type="activity" link="266772" start_time="09:15:18" >
			</activity>
		</plan>

	</person>

<!-- ====================================================================== -->

	<person id="10114">
		<plan selected="yes">
			<activity type="activity" link="134854" end_time="09:20:49" >
			</activity>
			<leg mode="av" dep_time="09:20:49">
			</leg>
			<activity type="activity" link="443818" start_time="09:33:52" >
			</activity>
		</plan>

	</person>

<!-- ====================================================================== -->

	<person id="10115">
		<plan selected="yes">
			<activity type="activity" link="443818" end_time="09:34:00" >
			</activity>
			<leg mode="av" dep_time="09:34:00">
			</leg>
			<activity type="activity" link="411643" start_time="09:43:10" >
			</activity>
		</plan>

	</person>

<!-- ====================================================================== -->

	<person id="10116">
		<plan selected="yes">
			<activity type="activity" link="260720" end_time="09:56:00" >
			</activity>
			<leg mode="av" dep_time="09:56:00">
			</leg>
			<activity type="activity" link="71756" start_time="10:18:06" >
			</activity>
		</plan>

	</person>
